REMARK  Name = ./02_4e91a_pre.pdb
REMARK  96 active torsions:
REMARK  status: ('A' for Active; 'I' for Inactive)
REMARK    1  A    between atoms: _1  and  _2
REMARK    2  A    between atoms: _2  and  _3
REMARK    3  A    between atoms: _10  and  _11
REMARK    4  A    between atoms: _11  and  _12
REMARK    5  A    between atoms: _11  and  _14
REMARK    6  A    between atoms: _14  and  _15
REMARK    7  A    between atoms: _14  and  _16
REMARK    8  A    between atoms: _15  and  _17
REMARK    9  A    between atoms: _29  and  _30
REMARK   10  A    between atoms: _30  and  _31
REMARK   11  A    between atoms: _30  and  _33
REMARK   12  A    between atoms: _33  and  _34
REMARK   13  A    between atoms: _49  and  _50
REMARK   14  A    between atoms: _50  and  _51
REMARK   15  A    between atoms: _50  and  _53
REMARK   16  A    between atoms: _53  and  _54
REMARK   17  A    between atoms: _60  and  _61
REMARK   18  A    between atoms: _61  and  _62
REMARK   19  A    between atoms: _61  and  _64
REMARK   20  A    between atoms: _64  and  _65
REMARK   21  A    between atoms: _65  and  _66
REMARK   22  A    between atoms: _66  and  _67
REMARK   23  A    between atoms: _67  and  _68
REMARK   24  A    between atoms: _82  and  _83
REMARK   25  A    between atoms: _83  and  _84
REMARK   26  A    between atoms: _83  and  _86
REMARK   27  A    between atoms: _86  and  _87
REMARK   28  A    between atoms: _87  and  _88
REMARK   29  A    between atoms: _87  and  _89
REMARK   30  A    between atoms: _101  and  _102
REMARK   31  A    between atoms: _102  and  _103
REMARK   32  A    between atoms: _102  and  _105
REMARK   33  A    between atoms: _111  and  _112
REMARK   34  A    between atoms: _112  and  _113
REMARK   35  A    between atoms: _118  and  _119
REMARK   36  A    between atoms: _119  and  _120
REMARK   37  A    between atoms: _119  and  _122
REMARK   38  A    between atoms: _122  and  _123
REMARK   39  A    between atoms: _123  and  _124
REMARK   40  A    between atoms: _124  and  _125
REMARK   41  A    between atoms: _125  and  _126
REMARK   42  A    between atoms: _140  and  _141
REMARK   43  A    between atoms: _141  and  _142
REMARK   44  A    between atoms: _141  and  _144
REMARK   45  A    between atoms: _144  and  _145
REMARK   46  A    between atoms: _145  and  _146
REMARK   47  A    between atoms: _146  and  _147
REMARK   48  A    between atoms: _147  and  _148
REMARK   49  A    between atoms: _162  and  _163
REMARK   50  A    between atoms: _163  and  _164
REMARK   51  A    between atoms: _163  and  _166
REMARK   52  A    between atoms: _166  and  _167
REMARK   53  A    between atoms: _167  and  _168
REMARK   54  A    between atoms: _167  and  _169
REMARK   55  A    between atoms: _181  and  _182
REMARK   56  A    between atoms: _182  and  _183
REMARK   57  A    between atoms: _182  and  _185
REMARK   58  A    between atoms: _185  and  _186
REMARK   59  A    between atoms: _186  and  _187
REMARK   60  A    between atoms: _187  and  _188
REMARK   61  A    between atoms: _188  and  _189
REMARK   62  A    between atoms: _203  and  _204
REMARK   63  A    between atoms: _204  and  _205
REMARK   64  A    between atoms: _204  and  _207
REMARK   65  A    between atoms: _207  and  _208
REMARK   66  A    between atoms: _217  and  _218
REMARK   67  A    between atoms: _218  and  _219
REMARK   68  A    between atoms: _218  and  _221
REMARK   69  A    between atoms: _221  and  _222
REMARK   70  A    between atoms: _222  and  _223
REMARK   71  A    between atoms: _222  and  _224
REMARK   72  A    between atoms: _236  and  _237
REMARK   73  A    between atoms: _237  and  _238
REMARK   74  A    between atoms: _237  and  _240
REMARK   75  A    between atoms: _240  and  _241
REMARK   76  A    between atoms: _241  and  _242
REMARK   77  A    between atoms: _241  and  _243
REMARK   78  A    between atoms: _255  and  _256
REMARK   79  A    between atoms: _256  and  _257
REMARK   80  A    between atoms: _256  and  _259
REMARK   81  A    between atoms: _259  and  _260
REMARK   82  A    between atoms: _259  and  _261
REMARK   83  A    between atoms: _260  and  _262
REMARK   84  A    between atoms: _274  and  _275
REMARK   85  A    between atoms: _275  and  _276
REMARK   86  A    between atoms: _275  and  _278
REMARK   87  A    between atoms: _278  and  _279
REMARK   88  A    between atoms: _285  and  _286
REMARK   89  A    between atoms: _286  and  _287
REMARK   90  A    between atoms: _292  and  _293
REMARK   91  A    between atoms: _293  and  _294
REMARK   92  A    between atoms: _293  and  _296
REMARK   93  A    between atoms: _294  and  _295
REMARK   94  A    between atoms: _296  and  _297
REMARK   95  A    between atoms: _297  and  _298
REMARK   96  A    between atoms: _297  and  _299
REMARK                            x       y       z     vdW  Elec       q    Type
REMARK                         _______ _______ _______ _____ _____    ______ ____
ROOT
ATOM      1  CA  LYS A  10       7.379  -4.082  -1.533  0.00  0.00    +0.159 C 
ENDROOT
BRANCH   1   3
ATOM      2  C   LYS A   9       6.277  -5.977  -2.432  0.00  0.00    +0.234 C 
ATOM      3  N   LYS A  10       6.285  -5.047  -1.602  0.00  0.00    -0.302 N 
ATOM      4  H   LYS A  10       5.466  -4.953  -0.920  0.00  0.00    +0.150 HD
ATOM      5  O   LYS A   9       7.168  -6.207  -3.252  0.00  0.00    -0.274 OA
BRANCH   2   6
ATOM      6  CA  LYS A   9       5.043  -6.871  -2.354  0.00  0.00    +0.159 C 
BRANCH   6   9
ATOM      7  C   GLY A   8       5.453  -7.938  -0.272  0.00  0.00    +0.231 C 
ATOM      8  O   GLY A   8       6.527  -8.406  -0.656  0.00  0.00    -0.274 OA
ATOM      9  N   LYS A   9       4.691  -7.168  -0.968  0.00  0.00    -0.303 N 
ATOM     10  H   LYS A   9       3.807  -6.749  -0.534  0.00  0.00    +0.149 HD
BRANCH   7  11
ATOM     11  CA  GLY A   8       4.969  -8.180   1.145  0.00  0.00    +0.200 C 
BRANCH  11  14
ATOM     12  C   ALA A   7       5.066  -5.973   2.088  0.00  0.00    +0.233 C 
ATOM     13  O   ALA A   7       6.273  -5.926   1.852  0.00  0.00    -0.274 OA
ATOM     14  N   GLY A   8       4.344  -7.012   1.744  0.00  0.00    -0.305 N 
ATOM     15  H   GLY A   8       3.286  -7.000   1.905  0.00  0.00    +0.149 HD
BRANCH  12  16
ATOM     16  CA  ALA A   7       4.344  -4.770   2.682  0.00  0.00    +0.156 C 
ATOM     17  CB  ALA A   7       4.223  -4.918   4.199  0.00  0.00    +0.038 C 
BRANCH  16  19
ATOM     18  C   LEU A   6       3.006  -4.316   0.679  0.00  0.00    +0.234 C 
ATOM     19  N   ALA A   7       3.021  -4.598   2.082  0.00  0.00    -0.303 N 
ATOM     20  H   ALA A   7       2.121  -4.678   2.656  0.00  0.00    +0.149 HD
ATOM     21  O   LEU A   6       3.961  -4.172  -0.086  0.00  0.00    -0.274 OA
BRANCH  18  22
ATOM     22  CA  LEU A   6       1.576  -4.203   0.159  0.00  0.00    +0.159 C 
BRANCH  22  24
ATOM     23  C   LYS A   5       0.909  -6.484   0.355  0.00  0.00    +0.234 C 
ATOM     24  N   LEU A   6       0.729  -5.242   0.741  0.00  0.00    -0.302 N 
ATOM     25  H   LEU A   6      -0.020  -4.996   1.465  0.00  0.00    +0.150 HD
ATOM     26  O   LYS A   5       1.769  -6.871  -0.439  0.00  0.00    -0.274 OA
BRANCH  23  27
ATOM     27  CA  LYS A   5      -0.021  -7.484   1.040  0.00  0.00    +0.159 C 
BRANCH  27  30
ATOM     28  C   SER A   4       0.761  -7.457   3.264  0.00  0.00    +0.236 C 
ATOM     29  O   SER A   4       1.890  -7.836   2.947  0.00  0.00    -0.274 OA
ATOM     30  N   LYS A   5      -0.197  -7.156   2.451  0.00  0.00    -0.302 N 
ATOM     31  H   LYS A   5      -1.090  -6.682   2.801  0.00  0.00    +0.150 HD
BRANCH  28  32
ATOM     32  CA  SER A   4       0.449  -7.074   4.707  0.00  0.00    +0.184 C 
BRANCH  32  34
ATOM     33  C   PHE A   3      -0.060  -4.684   4.391  0.00  0.00    +0.234 C 
ATOM     34  N   SER A   4      -0.438  -5.918   4.770  0.00  0.00    -0.301 N 
ATOM     35  H   SER A   4      -1.434  -6.058   5.134  0.00  0.00    +0.150 HD
ATOM     36  O   PHE A   3       1.046  -4.488   3.881  0.00  0.00    -0.274 OA
BRANCH  33  37
ATOM     37  CA  PHE A   3      -1.077  -3.555   4.488  0.00  0.00    +0.163 C 
BRANCH  37  39
ATOM     38  C   ILE A   2      -2.887  -4.375   2.975  0.00  0.00    +0.234 C 
ATOM     39  N   PHE A   3      -2.430  -4.055   4.270  0.00  0.00    -0.302 N 
ATOM     40  H   PHE A   3      -3.086  -4.181   5.106  0.00  0.00    +0.150 HD
ATOM     41  O   ILE A   2      -2.125  -4.363   2.006  0.00  0.00    -0.274 OA
BRANCH  38  42
ATOM     42  CA  ILE A   2      -4.309  -4.918   2.838  0.00  0.00    +0.162 C 
BRANCH  42  45
ATOM     43  C   GLY A   1      -4.035  -6.102   5.062  0.00  0.00    +0.259 C 
ATOM     44  O   GLY A   1      -3.055  -6.641   4.547  0.00  0.00    -0.270 OA
ATOM     45  N   ILE A   2      -4.734  -5.512   4.102  0.00  0.00    -0.299 N 
ATOM     46  H   ILE A   2      -5.787  -5.463   4.285  0.00  0.00    +0.150 HD
BRANCH  43  47
ATOM     47  CA  GLY A   1      -4.707  -6.719   6.273  0.00  0.00    +0.225 C 
BRANCH  47  48
ATOM     48  N   GLY A   1      -4.309  -8.102   6.508  0.00  0.00    +0.225 N 
ATOM     49  H1  GLY A   1      -4.816  -8.478   7.372  0.00  0.00    +0.200 HD
ATOM     50  H2  GLY A   1      -3.252  -8.147   6.667  0.00  0.00    +0.200 HD
ATOM     51  H3  GLY A   1      -4.567  -8.697   5.657  0.00  0.00    +0.200 HD
ENDBRANCH  47  48
ENDBRANCH  43  47
ENDBRANCH  42  45
BRANCH  42  52
ATOM     52  CB  ILE A   2      -5.270  -3.791   2.393  0.00  0.00    +0.015 C 
ATOM     53  CG2 ILE A   2      -6.664  -4.355   2.104  0.00  0.00    +0.010 C 
BRANCH  52  54
ATOM     54  CG1 ILE A   2      -5.332  -2.691   3.459  0.00  0.00    +0.002 C 
ATOM     55  CD1 ILE A   2      -5.895  -1.369   2.951  0.00  0.00    +0.004 C 
ENDBRANCH  52  54
ENDBRANCH  42  52
ENDBRANCH  38  42
ENDBRANCH  37  39
BRANCH  37  56
ATOM     56  CB  PHE A   3      -0.973  -2.871   5.855  0.00  0.00    +0.067 C 
BRANCH  56  57
ATOM     57  CG  PHE A   3      -1.257  -1.395   5.820  0.00  0.00    -0.045 A 
ATOM     58  CD2 PHE A   3      -2.543  -0.917   6.043  0.00  0.00    +0.004 A 
ATOM     59  CE2 PHE A   3      -2.811   0.449   6.008  0.00  0.00    +0.000 A 
ATOM     60  CZ  PHE A   3      -1.787   1.349   5.754  0.00  0.00    +0.000 A 
ATOM     61  CE1 PHE A   3      -0.499   0.885   5.531  0.00  0.00    +0.000 A 
ATOM     62  CD1 PHE A   3      -0.239  -0.483   5.566  0.00  0.00    +0.004 A 
ENDBRANCH  56  57
ENDBRANCH  37  56
ENDBRANCH  33  37
ENDBRANCH  32  34
BRANCH  32  63
ATOM     63  CB  SER A   4      -0.173  -8.266   5.438  0.00  0.00    +0.187 C 
BRANCH  63  64
ATOM     64  OG  SER A   4      -0.223  -8.031   6.832  0.00  0.00    -0.393 OA
ATOM     65  H   SER A   4       0.750  -7.881   7.197  0.00  0.00    +0.209 HD
ENDBRANCH  63  64
ENDBRANCH  32  63
ENDBRANCH  28  32
ENDBRANCH  27  30
BRANCH  27  66
ATOM     66  CB  LYS A   5      -1.372  -7.516   0.324  0.00  0.00    +0.032 C 
BRANCH  66  67
ATOM     67  CG  LYS A   5      -1.315  -8.109  -1.077  0.00  0.00    +0.007 C 
BRANCH  67  68
ATOM     68  CD  LYS A   5      -2.584  -8.891  -1.406  0.00  0.00    +0.051 C 
BRANCH  68  69
ATOM     69  CE  LYS A   5      -2.523  -9.492  -2.803  0.00  0.00    +0.127 C 
BRANCH  69  70
ATOM     70  NZ  LYS A   5      -3.789 -10.195  -3.154  0.00  0.00    +0.219 N 
ATOM     71  HZ1 LYS A   5      -3.965 -10.985  -2.454  0.00  0.00    +0.199 HD
ATOM     72  HZ2 LYS A   5      -4.604  -9.502  -3.120  0.00  0.00    +0.199 HD
ATOM     73  HZ3 LYS A   5      -3.709 -10.603  -4.140  0.00  0.00    +0.199 HD
ENDBRANCH  69  70
ENDBRANCH  68  69
ENDBRANCH  67  68
ENDBRANCH  66  67
ENDBRANCH  27  66
ENDBRANCH  23  27
ENDBRANCH  22  24
BRANCH  22  74
ATOM     74  CB  LEU A   6       1.014  -2.814   0.471  0.00  0.00    +0.034 C 
BRANCH  74  75
ATOM     75  CG  LEU A   6       1.563  -1.658  -0.365  0.00  0.00    -0.015 C 
ATOM     76  CD2 LEU A   6       1.160  -0.320   0.243  0.00  0.00    +0.007 C 
ATOM     77  CD1 LEU A   6       1.074  -1.767  -1.806  0.00  0.00    +0.007 C 
ENDBRANCH  74  75
ENDBRANCH  22  74
ENDBRANCH  18  22
ENDBRANCH  16  19
ENDBRANCH  12  16
ENDBRANCH  11  14
ENDBRANCH   7  11
ENDBRANCH   6   9
BRANCH   6  78
ATOM     78  CB  LYS A   9       3.867  -6.207  -3.072  0.00  0.00    +0.032 C 
BRANCH  78  79
ATOM     79  CG  LYS A   9       4.098  -5.988  -4.562  0.00  0.00    +0.007 C 
BRANCH  79  80
ATOM     80  CD  LYS A   9       2.809  -6.156  -5.355  0.00  0.00    +0.051 C 
BRANCH  80  81
ATOM     81  CE  LYS A   9       3.014  -5.840  -6.832  0.00  0.00    +0.127 C 
BRANCH  81  82
ATOM     82  NZ  LYS A   9       2.242  -6.766  -7.711  0.00  0.00    +0.219 N 
ATOM     83  HZ1 LYS A   9       1.198  -6.679  -7.492  0.00  0.00    +0.199 HD
ATOM     84  HZ2 LYS A   9       2.560  -7.773  -7.537  0.00  0.00    +0.199 HD
ATOM     85  HZ3 LYS A   9       2.413  -6.511  -8.736  0.00  0.00    +0.199 HD
ENDBRANCH  81  82
ENDBRANCH  80  81
ENDBRANCH  79  80
ENDBRANCH  78  79
ENDBRANCH   6  78
ENDBRANCH   2   6
ENDBRANCH   1   3
BRANCH   1  86
ATOM     86  C   LYS A  10       8.664  -4.742  -1.052  0.00  0.00    +0.234 C 
ATOM     87  N   LEU A  11       8.477  -5.660  -0.121  0.00  0.00    -0.302 N 
ATOM     88  H   LEU A  11       7.486  -5.854   0.232  0.00  0.00    +0.150 HD
ATOM     89  O   LYS A  10       9.742  -4.469  -1.582  0.00  0.00    -0.274 OA
BRANCH  87  90
ATOM     90  CA  LEU A  11       9.594  -6.414   0.435  0.00  0.00    +0.159 C 
BRANCH  90  91
ATOM     91  C   LEU A  11      10.172  -7.375  -0.599  0.00  0.00    +0.234 C 
ATOM     92  O   LEU A  11      11.391  -7.477  -0.751  0.00  0.00    -0.274 OA
ATOM     93  N   LYS A  12       9.312  -7.969  -1.332  0.00  0.00    -0.302 N 
ATOM     94  H   LYS A  12       8.267  -7.802  -1.171  0.00  0.00    +0.150 HD
BRANCH  93  95
ATOM     95  CA  LYS A  12       9.750  -8.875  -2.389  0.00  0.00    +0.159 C 
BRANCH  95  96
ATOM     96  C   LYS A  12      10.477  -8.125  -3.498  0.00  0.00    +0.234 C 
ATOM     97  N   ASN A  13      10.016  -7.066  -3.783  0.00  0.00    -0.302 N 
ATOM     98  H   ASN A  13       9.172  -6.708  -3.232  0.00  0.00    +0.150 HD
ATOM     99  O   LYS A  12      11.477  -8.602  -4.031  0.00  0.00    -0.274 OA
BRANCH  97 100
ATOM    100  CA  ASN A  13      10.555  -6.238  -4.852  0.00  0.00    +0.168 C 
BRANCH 100 101
ATOM    101  C   ASN A  13      11.953  -5.719  -4.508  0.00  0.00    +0.234 C 
ATOM    102  N   LEU A  14      12.102  -5.391  -3.309  0.00  0.00    -0.302 N 
ATOM    103  H   LEU A  14      11.265  -5.463  -2.647  0.00  0.00    +0.150 HD
ATOM    104  O   ASN A  13      12.836  -5.688  -5.363  0.00  0.00    -0.274 OA
BRANCH 102 105
ATOM    105  CA  LEU A  14      13.375  -4.914  -2.783  0.00  0.00    +0.159 C 
BRANCH 105 106
ATOM    106  C   LEU A  14      14.398  -6.047  -2.711  0.00  0.00    +0.234 C 
ATOM    107  N   LEU A  15      13.961  -7.230  -2.340  0.00  0.00    -0.302 N 
ATOM    108  H   LEU A  15      12.927  -7.342  -2.087  0.00  0.00    +0.150 HD
ATOM    109  O   LEU A  14      15.562  -5.859  -3.057  0.00  0.00    -0.274 OA
BRANCH 107 110
ATOM    110  CA  LEU A  15      14.836  -8.398  -2.260  0.00  0.00    +0.159 C 
BRANCH 110 111
ATOM    111  C   LEU A  15      15.320  -8.812  -3.646  0.00  0.00    +0.234 C 
ATOM    112  O   LEU A  15      16.484  -9.164  -3.820  0.00  0.00    -0.274 OA
ATOM    113  N   ILE A  16      14.445  -8.703  -4.559  0.00  0.00    -0.302 N 
ATOM    114  H   ILE A  16      13.473  -8.300  -4.364  0.00  0.00    +0.150 HD
BRANCH 113 115
ATOM    115  CA  ILE A  16      14.836  -9.156  -5.887  0.00  0.00    +0.162 C 
BRANCH 115 116
ATOM    116  C   ILE A  16      15.648  -8.070  -6.586  0.00  0.00    +0.234 C 
ATOM    117  N   SER A  17      15.320  -6.820  -6.320  0.00  0.00    -0.301 N 
ATOM    118  H   SER A  17      14.571  -6.594  -5.590  0.00  0.00    +0.150 HD
ATOM    119  O   ILE A  16      16.547  -8.367  -7.391  0.00  0.00    -0.274 OA
BRANCH 117 120
ATOM    120  CA  SER A  17      16.000  -5.754  -7.043  0.00  0.00    +0.184 C 
BRANCH 120 121
ATOM    121  C   SER A  17      17.328  -5.406  -6.379  0.00  0.00    +0.236 C 
ATOM    122  N   GLY A  18      17.516  -5.488  -5.035  0.00  0.00    -0.305 N 
ATOM    123  H   GLY A  18      16.703  -5.858  -4.445  0.00  0.00    +0.149 HD
ATOM    124  O   SER A  17      18.281  -4.996  -7.055  0.00  0.00    -0.274 OA
BRANCH 122 125
ATOM    125  CA  GLY A  18      18.734  -5.113  -4.336  0.00  0.00    +0.200 C 
BRANCH 125 126
ATOM    126  C   GLY A  18      19.719  -6.262  -4.180  0.00  0.00    +0.231 C 
ATOM    127  O   GLY A  18      20.891  -6.043  -3.918  0.00  0.00    -0.274 OA
ATOM    128  N   LEU A  19      19.516  -7.500  -4.660  0.00  0.00    -0.301 N 
ATOM    129  H   LEU A  19      18.510  -7.784  -4.887  0.00  0.00    +0.150 HD
BRANCH 128 130
ATOM    130  CA  LEU A  19      20.562  -8.484  -4.895  0.00  0.00    +0.182 C 
BRANCH 130 131
ATOM    131  C   LEU A  19      20.812  -8.680  -6.387  0.00  0.00    +0.325 C 
ATOM    132  O   LEU A  19      19.876  -8.717  -7.184  0.00  0.00    -0.249 OA
BRANCH 131 133
ATOM    133  OXT LEU A  19      21.955  -8.805  -6.825  0.00  0.00    -0.479 OA
ATOM    134  HXT LEU A  19      22.686  -8.781  -6.240  0.00  0.00    +0.295 HD
ENDBRANCH 131 133
ENDBRANCH 130 131
BRANCH 130 135
ATOM    135  CB  LEU A  19      20.203  -9.820  -4.242  0.00  0.00    +0.036 C 
BRANCH 135 136
ATOM    136  CG  LEU A  19      21.359 -10.742  -3.887  0.00  0.00    -0.015 C 
ATOM    137  CD2 LEU A  19      22.062 -10.242  -2.629  0.00  0.00    +0.007 C 
ATOM    138  CD1 LEU A  19      20.875 -12.180  -3.701  0.00  0.00    +0.007 C 
ENDBRANCH 135 136
ENDBRANCH 130 135
ENDBRANCH 128 130
ENDBRANCH 125 126
ENDBRANCH 122 125
ENDBRANCH 120 121
BRANCH 120 139
ATOM    139  CB  SER A  17      15.125  -4.508  -7.121  0.00  0.00    +0.187 C 
BRANCH 139 140
ATOM    140  OG  SER A  17      14.414  -4.469  -8.352  0.00  0.00    -0.393 OA
ATOM    141  H   SER A  17      15.096  -4.455  -9.150  0.00  0.00    +0.209 HD
ENDBRANCH 139 140
ENDBRANCH 120 139
ENDBRANCH 117 120
ENDBRANCH 115 116
BRANCH 115 142
ATOM    142  CB  ILE A  16      13.609  -9.539  -6.742  0.00  0.00    +0.015 C 
ATOM    143  CG2 ILE A  16      13.922 -10.734  -7.641  0.00  0.00    +0.010 C 
BRANCH 142 144
ATOM    144  CG1 ILE A  16      12.398  -9.828  -5.840  0.00  0.00    +0.002 C 
ATOM    145  CD1 ILE A  16      11.062  -9.734  -6.555  0.00  0.00    +0.004 C 
ENDBRANCH 142 144
ENDBRANCH 115 142
ENDBRANCH 113 115
ENDBRANCH 110 111
BRANCH 110 146
ATOM    146  CB  LEU A  15      14.109  -9.570  -1.591  0.00  0.00    +0.034 C 
BRANCH 146 147
ATOM    147  CG  LEU A  15      13.805  -9.406  -0.101  0.00  0.00    -0.015 C 
ATOM    148  CD2 LEU A  15      15.094  -9.297   0.704  0.00  0.00    +0.007 C 
ATOM    149  CD1 LEU A  15      12.961 -10.578   0.392  0.00  0.00    +0.007 C 
ENDBRANCH 146 147
ENDBRANCH 110 146
ENDBRANCH 107 110
ENDBRANCH 105 106
BRANCH 105 150
ATOM    150  CB  LEU A  14      13.188  -4.293  -1.396  0.00  0.00    +0.034 C 
BRANCH 150 151
ATOM    151  CG  LEU A  14      14.344  -3.438  -0.871  0.00  0.00    -0.015 C 
ATOM    152  CD2 LEU A  14      14.039  -2.941   0.538  0.00  0.00    +0.007 C 
ATOM    153  CD1 LEU A  14      14.602  -2.268  -1.812  0.00  0.00    +0.007 C 
ENDBRANCH 150 151
ENDBRANCH 105 150
ENDBRANCH 102 105
ENDBRANCH 100 101
BRANCH 100 154
ATOM    154  CB  ASN A  13       9.617  -5.066  -5.156  0.00  0.00    +0.127 C 
BRANCH 154 155
ATOM    155  CG  ASN A  13      10.070  -4.250  -6.352  0.00  0.00    +0.213 C 
ATOM    156  ND2 ASN A  13      10.523  -3.029  -6.094  0.00  0.00    -0.329 N 
ATOM    157 HD21 ASN A  13      10.553  -2.672  -5.086  0.00  0.00    +0.145 HD
ATOM    158 HD22 ASN A  13      10.858  -2.402  -6.894  0.00  0.00    +0.145 HD
ATOM    159  OD1 ASN A  13      10.016  -4.711  -7.492  0.00  0.00    -0.276 OA
ENDBRANCH 154 155
ENDBRANCH 100 154
ENDBRANCH  97 100
ENDBRANCH  95  96
BRANCH  95 160
ATOM    160  CB  LYS A  12       8.555  -9.641  -2.969  0.00  0.00    +0.032 C 
BRANCH 160 161
ATOM    161  CG  LYS A  12       8.023 -10.742  -2.061  0.00  0.00    +0.007 C 
BRANCH 161 162
ATOM    162  CD  LYS A  12       6.832 -11.453  -2.686  0.00  0.00    +0.051 C 
BRANCH 162 163
ATOM    163  CE  LYS A  12       6.305 -12.555  -1.782  0.00  0.00    +0.127 C 
BRANCH 163 164
ATOM    164  NZ  LYS A  12       5.137 -13.258  -2.391  0.00  0.00    +0.219 N 
ATOM    165  HZ1 LYS A  12       4.795 -14.024  -1.727  0.00  0.00    +0.199 HD
ATOM    166  HZ2 LYS A  12       4.347 -12.557  -2.562  0.00  0.00    +0.199 HD
ATOM    167  HZ3 LYS A  12       5.430 -13.698  -3.321  0.00  0.00    +0.199 HD
ENDBRANCH 163 164
ENDBRANCH 162 163
ENDBRANCH 161 162
ENDBRANCH 160 161
ENDBRANCH  95 160
ENDBRANCH  93  95
ENDBRANCH  90  91
BRANCH  90 168
ATOM    168  CB  LEU A  11       9.156  -7.184   1.681  0.00  0.00    +0.034 C 
BRANCH 168 169
ATOM    169  CG  LEU A  11      10.250  -7.949   2.426  0.00  0.00    -0.015 C 
ATOM    170  CD2 LEU A  11       9.656  -8.742   3.584  0.00  0.00    +0.007 C 
ATOM    171  CD1 LEU A  11      11.320  -6.988   2.928  0.00  0.00    +0.007 C 
ENDBRANCH 168 169
ENDBRANCH  90 168
ENDBRANCH  87  90
ENDBRANCH   1  86
BRANCH   1 172
ATOM    172  CB  LYS A  10       7.008  -2.918  -0.612  0.00  0.00    +0.032 C 
BRANCH 172 173
ATOM    173  CG  LYS A  10       8.016  -1.777  -0.621  0.00  0.00    +0.007 C 
BRANCH 173 174
ATOM    174  CD  LYS A  10       7.422  -0.504  -0.032  0.00  0.00    +0.051 C 
BRANCH 174 175
ATOM    175  CE  LYS A  10       8.375   0.677  -0.181  0.00  0.00    +0.127 C 
BRANCH 175 176
ATOM    176  NZ  LYS A  10       8.414   1.517   1.054  0.00  0.00    +0.219 N 
ATOM    177  HZ1 LYS A  10       8.743   0.922   1.880  0.00  0.00    +0.199 HD
ATOM    178  HZ2 LYS A  10       7.435   1.899   1.257  0.00  0.00    +0.199 HD
ATOM    179  HZ3 LYS A  10       9.092   2.332   0.910  0.00  0.00    +0.199 HD
ENDBRANCH 175 176
ENDBRANCH 174 175
ENDBRANCH 173 174
ENDBRANCH 172 173
ENDBRANCH   1 172
TORSDOF 81
