REMARK  Name = ./03_30c16_pre.pdb
REMARK  95 active torsions:
REMARK  status: ('A' for Active; 'I' for Inactive)
REMARK    1  A    between atoms: _1  and  _2
REMARK    2  A    between atoms: _2  and  _3
REMARK    3  A    between atoms: _2  and  _5
REMARK    4  A    between atoms: _5  and  _6
REMARK    5  A    between atoms: _6  and  _7
REMARK    6  A    between atoms: _7  and  _8
REMARK    7  A    between atoms: _20  and  _21
REMARK    8  A    between atoms: _21  and  _22
REMARK    9  A    between atoms: _21  and  _24
REMARK   10  A    between atoms: _30  and  _31
REMARK   11  A    between atoms: _31  and  _32
REMARK   12  A    between atoms: _31  and  _34
REMARK   13  A    between atoms: _34  and  _35
REMARK   14  A    between atoms: _41  and  _42
REMARK   15  A    between atoms: _42  and  _43
REMARK   16  A    between atoms: _42  and  _45
REMARK   17  A    between atoms: _45  and  _46
REMARK   18  A    between atoms: _46  and  _47
REMARK   19  A    between atoms: _47  and  _48
REMARK   20  A    between atoms: _65  and  _66
REMARK   21  A    between atoms: _66  and  _67
REMARK   22  A    between atoms: _66  and  _69
REMARK   23  A    between atoms: _75  and  _76
REMARK   24  A    between atoms: _76  and  _77
REMARK   25  A    between atoms: _76  and  _79
REMARK   26  A    between atoms: _85  and  _86
REMARK   27  A    between atoms: _86  and  _87
REMARK   28  A    between atoms: _86  and  _89
REMARK   29  A    between atoms: _89  and  _90
REMARK   30  A    between atoms: _90  and  _91
REMARK   31  A    between atoms: _91  and  _92
REMARK   32  A    between atoms: _109  and  _110
REMARK   33  A    between atoms: _110  and  _111
REMARK   34  A    between atoms: _110  and  _113
REMARK   35  A    between atoms: _113  and  _114
REMARK   36  A    between atoms: _114  and  _115
REMARK   37  A    between atoms: _114  and  _116
REMARK   38  A    between atoms: _128  and  _129
REMARK   39  A    between atoms: _129  and  _130
REMARK   40  A    between atoms: _129  and  _132
REMARK   41  A    between atoms: _138  and  _139
REMARK   42  A    between atoms: _139  and  _140
REMARK   43  A    between atoms: _139  and  _142
REMARK   44  A    between atoms: _148  and  _149
REMARK   45  A    between atoms: _149  and  _150
REMARK   46  A    between atoms: _149  and  _152
REMARK   47  A    between atoms: _152  and  _153
REMARK   48  A    between atoms: _153  and  _154
REMARK   49  A    between atoms: _154  and  _155
REMARK   50  A    between atoms: _172  and  _173
REMARK   51  A    between atoms: _173  and  _174
REMARK   52  A    between atoms: _173  and  _176
REMARK   53  A    between atoms: _176  and  _177
REMARK   54  A    between atoms: _177  and  _178
REMARK   55  A    between atoms: _177  and  _179
REMARK   56  A    between atoms: _191  and  _192
REMARK   57  A    between atoms: _192  and  _193
REMARK   58  A    between atoms: _192  and  _195
REMARK   59  A    between atoms: _201  and  _202
REMARK   60  A    between atoms: _202  and  _203
REMARK   61  A    between atoms: _202  and  _205
REMARK   62  A    between atoms: _205  and  _206
REMARK   63  A    between atoms: _206  and  _207
REMARK   64  A    between atoms: _207  and  _208
REMARK   65  A    between atoms: _225  and  _226
REMARK   66  A    between atoms: _226  and  _227
REMARK   67  A    between atoms: _226  and  _229
REMARK   68  A    between atoms: _229  and  _230
REMARK   69  A    between atoms: _230  and  _231
REMARK   70  A    between atoms: _230  and  _232
REMARK   71  A    between atoms: _244  and  _245
REMARK   72  A    between atoms: _245  and  _246
REMARK   73  A    between atoms: _245  and  _248
REMARK   74  A    between atoms: _254  and  _255
REMARK   75  A    between atoms: _255  and  _256
REMARK   76  A    between atoms: _255  and  _258
REMARK   77  A    between atoms: _258  and  _259
REMARK   78  A    between atoms: _259  and  _260
REMARK   79  A    between atoms: _259  and  _261
REMARK   80  A    between atoms: _273  and  _274
REMARK   81  A    between atoms: _274  and  _275
REMARK   82  A    between atoms: _274  and  _277
REMARK   83  A    between atoms: _277  and  _278
REMARK   84  A    between atoms: _278  and  _279
REMARK   85  A    between atoms: _279  and  _280
REMARK   86  A    between atoms: _297  and  _298
REMARK   87  A    between atoms: _298  and  _299
REMARK   88  A    between atoms: _298  and  _301
REMARK   89  A    between atoms: _307  and  _308
REMARK   90  A    between atoms: _308  and  _309
REMARK   91  A    between atoms: _308  and  _311
REMARK   92  A    between atoms: _309  and  _315
REMARK   93  A    between atoms: _311  and  _312
REMARK   94  A    between atoms: _312  and  _313
REMARK   95  A    between atoms: _312  and  _314
REMARK                            x       y       z     vdW  Elec       q    Type
REMARK                         _______ _______ _______ _____ _____    ______ ____
ROOT
ATOM      1  CA  ARG A  11       1.892   1.061  -1.172  0.00  0.00    +0.159 C 
ENDROOT
BRANCH   1   2
ATOM      2  C   ARG A  11       2.986   0.013  -1.346  0.00  0.00    +0.234 C 
ATOM      3  N   LEU A  12       3.477  -0.431  -0.251  0.00  0.00    -0.302 N 
ATOM      4  H   LEU A  12       3.134  -0.041   0.685  0.00  0.00    +0.150 HD
ATOM      5  O   ARG A  11       3.320  -0.363  -2.471  0.00  0.00    -0.274 OA
BRANCH   3   6
ATOM      6  CA  LEU A  12       4.504  -1.468  -0.275  0.00  0.00    +0.159 C 
BRANCH   6   7
ATOM      7  C   LEU A  12       3.947  -2.770  -0.842  0.00  0.00    +0.234 C 
ATOM      8  N   ALA A  13       2.736  -3.076  -0.552  0.00  0.00    -0.303 N 
ATOM      9  H   ALA A  13       2.182  -2.426   0.093  0.00  0.00    +0.149 HD
ATOM     10  O   LEU A  12       4.637  -3.473  -1.585  0.00  0.00    -0.274 OA
BRANCH   8  11
ATOM     11  CA  ALA A  13       2.082  -4.277  -1.068  0.00  0.00    +0.156 C 
ATOM     12  CB  ALA A  13       0.730  -4.480  -0.389  0.00  0.00    +0.038 C 
BRANCH  11  13
ATOM     13  C   ALA A  13       1.906  -4.199  -2.582  0.00  0.00    +0.234 C 
ATOM     14  N   ARG A  14       1.548  -3.021  -2.988  0.00  0.00    -0.302 N 
ATOM     15  H   ARG A  14       1.397  -2.217  -2.298  0.00  0.00    +0.150 HD
ATOM     16  O   ALA A  13       2.123  -5.184  -3.291  0.00  0.00    -0.274 OA
BRANCH  14  17
ATOM     17  CA  ARG A  14       1.359  -2.834  -4.422  0.00  0.00    +0.159 C 
BRANCH  17  18
ATOM     18  C   ARG A  14       2.686  -2.947  -5.168  0.00  0.00    +0.234 C 
ATOM     19  N   LEU A  15       3.701  -2.434  -4.637  0.00  0.00    -0.302 N 
ATOM     20  H   LEU A  15       3.584  -1.914  -3.709  0.00  0.00    +0.150 HD
ATOM     21  O   ARG A  14       2.746  -3.535  -6.250  0.00  0.00    -0.274 OA
BRANCH  19  22
ATOM     22  CA  LEU A  15       5.031  -2.514  -5.227  0.00  0.00    +0.159 C 
BRANCH  22  23
ATOM     23  C   LEU A  15       5.527  -3.955  -5.254  0.00  0.00    +0.234 C 
ATOM     24  N   ALA A  16       5.270  -4.688  -4.219  0.00  0.00    -0.303 N 
ATOM     25  H   ALA A  16       4.758  -4.252  -3.387  0.00  0.00    +0.149 HD
ATOM     26  O   LEU A  15       6.160  -4.379  -6.223  0.00  0.00    -0.274 OA
BRANCH  24  27
ATOM     27  CA  ALA A  16       5.660  -6.094  -4.156  0.00  0.00    +0.156 C 
ATOM     28  CB  ALA A  16       5.387  -6.660  -2.766  0.00  0.00    +0.038 C 
BRANCH  27  29
ATOM     29  C   ALA A  16       4.930  -6.914  -5.215  0.00  0.00    +0.234 C 
ATOM     30  N   LEU A  17       3.738  -6.570  -5.430  0.00  0.00    -0.302 N 
ATOM     31  H   LEU A  17       3.298  -5.769  -4.873  0.00  0.00    +0.150 HD
ATOM     32  O   ALA A  16       5.508  -7.824  -5.812  0.00  0.00    -0.274 OA
BRANCH  30  33
ATOM     33  CA  LEU A  17       2.963  -7.273  -6.445  0.00  0.00    +0.159 C 
BRANCH  33  34
ATOM     34  C   LEU A  17       3.480  -6.949  -7.844  0.00  0.00    +0.234 C 
ATOM     35  N   ARG A  18       3.889  -5.723  -7.961  0.00  0.00    -0.302 N 
ATOM     36  H   ARG A  18       3.841  -5.029  -7.148  0.00  0.00    +0.150 HD
ATOM     37  O   LEU A  17       3.492  -7.816  -8.719  0.00  0.00    -0.274 OA
BRANCH  35  38
ATOM     38  CA  ARG A  18       4.418  -5.348  -9.266  0.00  0.00    +0.159 C 
BRANCH  38  39
ATOM     39  C   ARG A  18       5.797  -5.961  -9.492  0.00  0.00    +0.234 C 
ATOM     40  N   ALA A  19       6.496  -6.145  -8.516  0.00  0.00    -0.303 N 
ATOM     41  H   ALA A  19       6.140  -5.876  -7.543  0.00  0.00    +0.149 HD
ATOM     42  O   ARG A  18       6.152  -6.297 -10.625  0.00  0.00    -0.274 OA
BRANCH  40  43
ATOM     43  CA  ALA A  19       7.824  -6.734  -8.672  0.00  0.00    +0.156 C 
ATOM     44  CB  ALA A  19       8.680  -6.434  -7.445  0.00  0.00    +0.038 C 
BRANCH  43  45
ATOM     45  C   ALA A  19       7.730  -8.242  -8.891  0.00  0.00    +0.234 C 
ATOM     46  N   LEU A  20       6.719  -8.852  -8.305  0.00  0.00    -0.301 N 
ATOM     47  H   LEU A  20       6.087  -8.349  -7.604  0.00  0.00    +0.150 HD
ATOM     48  O   ALA A  19       8.586  -8.836  -9.555  0.00  0.00    -0.274 OA
BRANCH  46  49
ATOM     49  CA  LEU A  20       6.508 -10.250  -8.664  0.00  0.00    +0.182 C 
BRANCH  49  50
ATOM     50  C   LEU A  20       6.098 -10.391 -10.125  0.00  0.00    +0.325 C 
ATOM     51  O   LEU A  20       6.665 -11.197 -10.861  0.00  0.00    -0.249 OA
BRANCH  50  52
ATOM     52  OXT LEU A  20       5.193  -9.701 -10.592  0.00  0.00    -0.479 OA
ATOM     53  HXT LEU A  20       4.748  -9.081 -10.048  0.00  0.00    +0.295 HD
ENDBRANCH  50  52
ENDBRANCH  49  50
BRANCH  49  54
ATOM     54  CB  LEU A  20       5.445 -10.883  -7.758  0.00  0.00    +0.036 C 
BRANCH  54  55
ATOM     55  CG  LEU A  20       5.250 -12.391  -7.891  0.00  0.00    -0.015 C 
ATOM     56  CD2 LEU A  20       4.094 -12.859  -7.016  0.00  0.00    +0.007 C 
ATOM     57  CD1 LEU A  20       6.535 -13.125  -7.527  0.00  0.00    +0.007 C 
ENDBRANCH  54  55
ENDBRANCH  49  54
ENDBRANCH  46  49
ENDBRANCH  43  45
ENDBRANCH  40  43
ENDBRANCH  38  39
BRANCH  38  58
ATOM     58  CB  ARG A  18       4.488  -3.826  -9.406  0.00  0.00    +0.035 C 
BRANCH  58  59
ATOM     59  CG  ARG A  18       4.547  -3.338 -10.844  0.00  0.00    +0.039 C 
BRANCH  59  60
ATOM     60  CD  ARG A  18       3.967  -1.939 -10.984  0.00  0.00    +0.196 C 
BRANCH  60  61
ATOM     61  NE  ARG A  18       4.492  -1.258 -12.164  0.00  0.00    -0.279 N 
ATOM     62  HE  ARG A  18       5.554  -1.232 -12.290  0.00  0.00    +0.258 HD
ATOM     63  CZ  ARG A  18       3.746  -0.667 -13.094  0.00  0.00    +0.341 C 
ATOM     64  NH2 ARG A  18       2.422  -0.663 -13.000  0.00  0.00    -0.292 N 
ATOM     65 HH21 ARG A  18       1.943  -1.139 -12.170  0.00  0.00    +0.255 HD
ATOM     66 HH22 ARG A  18       1.834  -0.184 -13.755  0.00  0.00    +0.255 HD
ATOM     67  NH1 ARG A  18       4.328  -0.075 -14.133  0.00  0.00    -0.292 N 
ATOM     68 HH11 ARG A  18       5.394  -0.074 -14.220  0.00  0.00    +0.255 HD
ATOM     69 HH12 ARG A  18       3.730   0.401 -14.882  0.00  0.00    +0.255 HD
ENDBRANCH  60  61
ENDBRANCH  59  60
ENDBRANCH  58  59
ENDBRANCH  38  58
ENDBRANCH  35  38
ENDBRANCH  33  34
BRANCH  33  70
ATOM     70  CB  LEU A  17       1.480  -6.902  -6.340  0.00  0.00    +0.034 C 
BRANCH  70  71
ATOM     71  CG  LEU A  17       0.715  -7.504  -5.160  0.00  0.00    -0.015 C 
ATOM     72  CD2 LEU A  17      -0.656  -6.848  -5.031  0.00  0.00    +0.007 C 
ATOM     73  CD1 LEU A  17       0.577  -9.016  -5.328  0.00  0.00    +0.007 C 
ENDBRANCH  70  71
ENDBRANCH  33  70
ENDBRANCH  30  33
ENDBRANCH  27  29
ENDBRANCH  24  27
ENDBRANCH  22  23
BRANCH  22  74
ATOM     74  CB  LEU A  15       6.020  -1.637  -4.449  0.00  0.00    +0.034 C 
BRANCH  74  75
ATOM     75  CG  LEU A  15       6.219  -0.213  -4.969  0.00  0.00    -0.015 C 
ATOM     76  CD2 LEU A  15       6.594   0.723  -3.826  0.00  0.00    +0.007 C 
ATOM     77  CD1 LEU A  15       7.285  -0.189  -6.059  0.00  0.00    +0.007 C 
ENDBRANCH  74  75
ENDBRANCH  22  74
ENDBRANCH  19  22
ENDBRANCH  17  18
BRANCH  17  78
ATOM     78  CB  ARG A  14       0.713  -1.476  -4.707  0.00  0.00    +0.035 C 
BRANCH  78  79
ATOM     79  CG  ARG A  14      -0.764  -1.411  -4.352  0.00  0.00    +0.039 C 
BRANCH  79  80
ATOM     80  CD  ARG A  14      -1.409  -0.128  -4.855  0.00  0.00    +0.196 C 
BRANCH  80  81
ATOM     81  NE  ARG A  14      -1.061   1.017  -4.020  0.00  0.00    -0.279 N 
ATOM     82  CZ  ARG A  14      -1.812   1.488  -3.027  0.00  0.00    +0.341 C 
ATOM     83  NH2 ARG A  14      -1.398   2.535  -2.330  0.00  0.00    -0.292 N 
ATOM     84 HH21 ARG A  14      -1.998   2.917  -1.531  0.00  0.00    +0.255 HD
ATOM     85 HH22 ARG A  14      -0.463   2.999  -2.566  0.00  0.00    +0.255 HD
ATOM     86  NH1 ARG A  14      -2.975   0.921  -2.730  0.00  0.00    -0.292 N 
ATOM     87 HH11 ARG A  14      -3.570   1.308  -1.930  0.00  0.00    +0.255 HD
ATOM     88 HH12 ARG A  14      -3.317   0.077  -3.291  0.00  0.00    +0.255 HD
ATOM     89  HE  ARG A  14      -0.135   1.514  -4.220  0.00  0.00    +0.258 HD
ENDBRANCH  80  81
ENDBRANCH  79  80
ENDBRANCH  78  79
ENDBRANCH  17  78
ENDBRANCH  14  17
ENDBRANCH  11  13
ENDBRANCH   8  11
ENDBRANCH   6   7
BRANCH   6  90
ATOM     90  CB  LEU A  12       5.055  -1.706   1.132  0.00  0.00    +0.034 C 
BRANCH  90  91
ATOM     91  CG  LEU A  12       5.969  -0.617   1.694  0.00  0.00    -0.015 C 
ATOM     92  CD2 LEU A  12       6.363  -0.945   3.131  0.00  0.00    +0.007 C 
ATOM     93  CD1 LEU A  12       7.207  -0.452   0.820  0.00  0.00    +0.007 C 
ENDBRANCH  90  91
ENDBRANCH   6  90
ENDBRANCH   3   6
ENDBRANCH   1   2
BRANCH   1  95
ATOM     94  C   ALA A  10       0.217  -0.306  -0.235  0.00  0.00    +0.234 C 
ATOM     95  N   ARG A  11       0.986   0.698  -0.087  0.00  0.00    -0.302 N 
ATOM     96  H   ARG A  11       0.968   1.267   0.819  0.00  0.00    +0.150 HD
ATOM     97  O   ALA A  10       0.209  -1.050  -1.220  0.00  0.00    -0.274 OA
BRANCH  94  98
ATOM     98  CA  ALA A  10      -0.683  -0.596   0.963  0.00  0.00    +0.156 C 
ATOM     99  CB  ALA A  10      -1.966   0.226   0.873  0.00  0.00    +0.038 C 
BRANCH  98 101
ATOM    100  C   ALA A   9       0.967  -1.095   2.588  0.00  0.00    +0.234 C 
ATOM    101  N   ALA A  10       0.011  -0.321   2.219  0.00  0.00    -0.303 N 
ATOM    102  H   ALA A  10      -0.274   0.515   2.824  0.00  0.00    +0.149 HD
ATOM    103  O   ALA A   9       1.430  -2.006   1.896  0.00  0.00    -0.274 OA
BRANCH 100 104
ATOM    104  CA  ALA A   9       1.613  -0.726   3.920  0.00  0.00    +0.156 C 
ATOM    105  CB  ALA A   9       0.857  -1.379   5.074  0.00  0.00    +0.038 C 
BRANCH 104 107
ATOM    106  C   LEU A   8       2.420   1.503   3.250  0.00  0.00    +0.234 C 
ATOM    107  N   ALA A   9       1.660   0.724   4.098  0.00  0.00    -0.303 N 
ATOM    108  H   ALA A   9       1.103   1.183   4.888  0.00  0.00    +0.149 HD
ATOM    109  O   LEU A   8       3.080   1.057   2.309  0.00  0.00    -0.274 OA
BRANCH 106 110
ATOM    110  CA  LEU A   8       2.369   3.004   3.516  0.00  0.00    +0.159 C 
BRANCH 110 112
ATOM    111  C   ARG A   7       0.114   3.389   2.904  0.00  0.00    +0.234 C 
ATOM    112  N   LEU A   8       1.009   3.432   3.824  0.00  0.00    -0.302 N 
ATOM    113  H   LEU A   8       0.760   3.778   4.805  0.00  0.00    +0.150 HD
ATOM    114  O   ARG A   7       0.275   2.945   1.766  0.00  0.00    -0.274 OA
BRANCH 111 115
ATOM    115  CA  ARG A   7      -1.265   3.848   3.369  0.00  0.00    +0.159 C 
BRANCH 115 117
ATOM    116  C   ALA A   6      -1.734   2.133   4.961  0.00  0.00    +0.234 C 
ATOM    117  N   ARG A   7      -1.521   3.428   4.742  0.00  0.00    -0.302 N 
ATOM    118  H   ARG A   7      -1.537   4.136   5.544  0.00  0.00    +0.150 HD
ATOM    119  O   ALA A   6      -1.637   1.226   4.133  0.00  0.00    -0.274 OA
BRANCH 116 120
ATOM    120  CA  ALA A   6      -2.018   1.815   6.430  0.00  0.00    +0.156 C 
ATOM    121  CB  ALA A   6      -3.512   1.940   6.715  0.00  0.00    +0.038 C 
BRANCH 120 123
ATOM    122  C   ALA A   5       0.115   2.488   7.383  0.00  0.00    +0.234 C 
ATOM    123  N   ALA A   6      -1.254   2.691   7.312  0.00  0.00    -0.303 N 
ATOM    124  H   ALA A   6      -1.732   3.460   7.882  0.00  0.00    +0.149 HD
ATOM    125  O   ALA A   5       0.758   1.690   6.695  0.00  0.00    -0.274 OA
BRANCH 122 126
ATOM    126  CA  ALA A   5       0.828   3.432   8.352  0.00  0.00    +0.156 C 
ATOM    127  CB  ALA A   5       0.837   2.840   9.758  0.00  0.00    +0.038 C 
BRANCH 126 129
ATOM    128  C   ARG A   4       0.305   5.496   7.230  0.00  0.00    +0.234 C 
ATOM    129  N   ALA A   5       0.200   4.750   8.352  0.00  0.00    -0.303 N 
ATOM    130  H   ALA A   5      -0.325   5.113   9.211  0.00  0.00    +0.149 HD
ATOM    131  O   ARG A   4       0.831   5.156   6.172  0.00  0.00    -0.274 OA
BRANCH 128 132
ATOM    132  CA  ARG A   4      -0.399   6.848   7.348  0.00  0.00    +0.159 C 
BRANCH 132 134
ATOM    133  C   SER A   3      -2.643   6.227   7.594  0.00  0.00    +0.236 C 
ATOM    134  N   ARG A   4      -1.642   6.723   8.102  0.00  0.00    -0.302 N 
ATOM    135  H   ARG A   4      -1.681   7.069   9.114  0.00  0.00    +0.150 HD
ATOM    136  O   SER A   3      -2.584   5.566   6.555  0.00  0.00    -0.274 OA
BRANCH 133 137
ATOM    137  CA  SER A   3      -3.893   6.188   8.469  0.00  0.00    +0.184 C 
BRANCH 137 140
ATOM    138  C   ALA A   2      -3.334   5.168  10.570  0.00  0.00    +0.234 C 
ATOM    139  O   ALA A   2      -2.926   4.133  10.039  0.00  0.00    -0.274 OA
ATOM    140  N   SER A   3      -3.551   6.285   9.883  0.00  0.00    -0.301 N 
ATOM    141  H   SER A   3      -3.476   7.240  10.360  0.00  0.00    +0.150 HD
BRANCH 138 142
ATOM    142  CA  ALA A   2      -3.125   5.410  12.062  0.00  0.00    +0.156 C 
ATOM    143  CB  ALA A   2      -4.332   4.914  12.852  0.00  0.00    +0.038 C 
BRANCH 142 145
ATOM    144  C   MET A   1      -1.738   7.672  12.070  0.00  0.00    +0.262 C 
ATOM    145  N   ALA A   2      -2.883   6.824  12.336  0.00  0.00    -0.300 N 
ATOM    146  H   ALA A   2      -3.696   7.323  12.820  0.00  0.00    +0.150 HD
ATOM    147  O   MET A   1      -0.686   7.141  11.711  0.00  0.00    -0.270 OA
BRANCH 144 148
ATOM    148  CA  MET A   1      -1.792   9.172  12.352  0.00  0.00    +0.149 C 
BRANCH 148 149
ATOM    149  N   MET A   1      -3.170   9.656  12.336  0.00  0.00    +0.227 N 
ATOM    150  H1  MET A   1      -3.737   9.145  13.086  0.00  0.00    +0.200 HD
ATOM    151  H2  MET A   1      -3.182  10.707  12.536  0.00  0.00    +0.200 HD
ATOM    152  H3  MET A   1      -3.602   9.471  11.375  0.00  0.00    +0.200 HD
ENDBRANCH 148 149
BRANCH 148 153
ATOM    153  CB  MET A   1      -1.126   9.477  13.695  0.00  0.00    +0.074 C 
BRANCH 153 154
ATOM    154  CG  MET A   1       0.248  10.117  13.562  0.00  0.00    +0.075 C 
BRANCH 154 155
ATOM    155  SD  MET A   1       1.189  10.078  15.141  0.00  0.00    -0.164 S 
ATOM    156  CE  MET A   1       2.881  10.250  14.500  0.00  0.00    +0.084 C 
ENDBRANCH 154 155
ENDBRANCH 153 154
ENDBRANCH 148 153
ENDBRANCH 144 148
ENDBRANCH 142 145
ENDBRANCH 138 142
ENDBRANCH 137 140
BRANCH 137 157
ATOM    157  CB  SER A   3      -4.840   7.320   8.062  0.00  0.00    +0.187 C 
BRANCH 157 158
ATOM    158  OG  SER A   3      -6.117   7.141   8.656  0.00  0.00    -0.393 OA
ATOM    159  H   SER A   3      -6.525   6.226   8.341  0.00  0.00    +0.209 HD
ENDBRANCH 157 158
ENDBRANCH 137 157
ENDBRANCH 133 137
ENDBRANCH 132 134
BRANCH 132 160
ATOM    160  CB  ARG A   4       0.532   7.867   8.008  0.00  0.00    +0.035 C 
BRANCH 160 161
ATOM    161  CG  ARG A   4       0.131   9.312   7.762  0.00  0.00    +0.039 C 
BRANCH 161 162
ATOM    162  CD  ARG A   4       1.062  10.281   8.477  0.00  0.00    +0.196 C 
BRANCH 162 163
ATOM    163  NE  ARG A   4       0.614  11.664   8.328  0.00  0.00    -0.279 N 
ATOM    164  CZ  ARG A   4       1.175  12.711   8.922  0.00  0.00    +0.341 C 
ATOM    165  NH2 ARG A   4       2.221  12.555   9.727  0.00  0.00    -0.292 N 
ATOM    166 HH21 ARG A   4       2.664  13.407  10.200  0.00  0.00    +0.255 HD
ATOM    167 HH22 ARG A   4       2.620  11.578   9.902  0.00  0.00    +0.255 HD
ATOM    168  NH1 ARG A   4       0.687  13.930   8.719  0.00  0.00    -0.292 N 
ATOM    169 HH11 ARG A   4       1.139  14.774   9.197  0.00  0.00    +0.255 HD
ATOM    170 HH12 ARG A   4      -0.158  14.068   8.077  0.00  0.00    +0.255 HD
ATOM    171  HE  ARG A   4      -0.228  11.847   7.694  0.00  0.00    +0.258 HD
ENDBRANCH 162 163
ENDBRANCH 161 162
ENDBRANCH 160 161
ENDBRANCH 132 160
ENDBRANCH 128 132
ENDBRANCH 126 129
ENDBRANCH 122 126
ENDBRANCH 120 123
ENDBRANCH 116 120
ENDBRANCH 115 117
BRANCH 115 172
ATOM    172  CB  ARG A   7      -1.382   5.367   3.240  0.00  0.00    +0.035 C 
BRANCH 172 173
ATOM    173  CG  ARG A   7      -2.811   5.883   3.299  0.00  0.00    +0.039 C 
BRANCH 173 174
ATOM    174  CD  ARG A   7      -2.896   7.355   2.916  0.00  0.00    +0.196 C 
BRANCH 174 175
ATOM    175  NE  ARG A   7      -2.480   8.219   4.016  0.00  0.00    -0.279 N 
ATOM    176  CZ  ARG A   7      -3.311   8.836   4.852  0.00  0.00    +0.341 C 
ATOM    177  NH2 ARG A   7      -2.824   9.602   5.816  0.00  0.00    -0.292 N 
ATOM    178 HH21 ARG A   7      -3.488  10.100   6.491  0.00  0.00    +0.255 HD
ATOM    179 HH22 ARG A   7      -1.766   9.723   5.920  0.00  0.00    +0.255 HD
ATOM    180  NH1 ARG A   7      -4.625   8.695   4.730  0.00  0.00    -0.292 N 
ATOM    181 HH11 ARG A   7      -5.282   9.197   5.409  0.00  0.00    +0.255 HD
ATOM    182 HH12 ARG A   7      -5.027   8.080   3.953  0.00  0.00    +0.255 HD
ATOM    183  HE  ARG A   7      -1.430   8.367   4.161  0.00  0.00    +0.258 HD
ENDBRANCH 174 175
ENDBRANCH 173 174
ENDBRANCH 172 173
ENDBRANCH 115 172
ENDBRANCH 111 115
ENDBRANCH 110 112
BRANCH 110 184
ATOM    184  CB  LEU A   8       3.316   3.363   4.664  0.00  0.00    +0.034 C 
BRANCH 184 185
ATOM    185  CG  LEU A   8       4.793   3.527   4.297  0.00  0.00    -0.015 C 
ATOM    186  CD2 LEU A   8       5.668   2.672   5.203  0.00  0.00    +0.007 C 
ATOM    187  CD1 LEU A   8       5.199   4.996   4.383  0.00  0.00    +0.007 C 
ENDBRANCH 184 185
ENDBRANCH 110 184
ENDBRANCH 106 110
ENDBRANCH 104 107
ENDBRANCH 100 104
ENDBRANCH  98 101
ENDBRANCH  94  98
ENDBRANCH   1  95
BRANCH   1 188
ATOM    188  CB  ARG A  11       2.516   2.434  -0.914  0.00  0.00    +0.035 C 
BRANCH 188 189
ATOM    189  CG  ARG A  11       1.565   3.598  -1.149  0.00  0.00    +0.039 C 
BRANCH 189 190
ATOM    190  CD  ARG A  11       2.213   4.934  -0.809  0.00  0.00    +0.196 C 
BRANCH 190 191
ATOM    191  NE  ARG A  11       2.793   5.566  -1.989  0.00  0.00    -0.279 N 
ATOM    192  CZ  ARG A  11       3.406   6.746  -1.991  0.00  0.00    +0.341 C 
ATOM    193  NH2 ARG A  11       3.535   7.445  -0.870  0.00  0.00    -0.292 N 
ATOM    194 HH21 ARG A  11       3.144   7.060   0.048  0.00  0.00    +0.255 HD
ATOM    195 HH22 ARG A  11       4.030   8.393  -0.885  0.00  0.00    +0.255 HD
ATOM    196  NH1 ARG A  11       3.898   7.230  -3.123  0.00  0.00    -0.292 N 
ATOM    197 HH11 ARG A  11       4.392   8.179  -3.129  0.00  0.00    +0.255 HD
ATOM    198 HH12 ARG A  11       3.801   6.672  -4.031  0.00  0.00    +0.255 HD
ATOM    199  HE  ARG A  11       2.720   5.043  -2.919  0.00  0.00    +0.258 HD
ENDBRANCH 190 191
ENDBRANCH 189 190
ENDBRANCH 188 189
ENDBRANCH   1 188
TORSDOF 76
