REMARK  Name = ./03_c90d0_pre.pdb
REMARK  67 active torsions:
REMARK  status: ('A' for Active; 'I' for Inactive)
REMARK    1  A    between atoms: _1  and  _2
REMARK    2  A    between atoms: _2  and  _3
REMARK    3  A    between atoms: _2  and  _5
REMARK    4  A    between atoms: _3  and  _4
REMARK    5  A    between atoms: _3  and  _18
REMARK    6  A    between atoms: _5  and  _6
REMARK    7  A    between atoms: _6  and  _7
REMARK    8  A    between atoms: _7  and  _9
REMARK    9  A    between atoms: _18  and  _19
REMARK   10  A    between atoms: _19  and  _20
REMARK   11  A    between atoms: _26  and  _27
REMARK   12  A    between atoms: _39  and  _40
REMARK   13  A    between atoms: _40  and  _41
REMARK   14  A    between atoms: _40  and  _43
REMARK   15  A    between atoms: _43  and  _44
REMARK   16  A    between atoms: _43  and  _45
REMARK   17  A    between atoms: _55  and  _56
REMARK   18  A    between atoms: _56  and  _57
REMARK   19  A    between atoms: _62  and  _63
REMARK   20  A    between atoms: _63  and  _64
REMARK   21  A    between atoms: _63  and  _66
REMARK   22  A    between atoms: _66  and  _67
REMARK   23  A    between atoms: _67  and  _68
REMARK   24  A    between atoms: _67  and  _69
REMARK   25  A    between atoms: _81  and  _82
REMARK   26  A    between atoms: _82  and  _83
REMARK   27  A    between atoms: _82  and  _85
REMARK   28  A    between atoms: _91  and  _92
REMARK   29  A    between atoms: _92  and  _93
REMARK   30  A    between atoms: _92  and  _95
REMARK   31  A    between atoms: _95  and  _96
REMARK   32  A    between atoms: _96  and  _97
REMARK   33  A    between atoms: _104  and  _105
REMARK   34  A    between atoms: _117  and  _118
REMARK   35  A    between atoms: _118  and  _119
REMARK   36  A    between atoms: _118  and  _121
REMARK   37  A    between atoms: _121  and  _122
REMARK   38  A    between atoms: _122  and  _124
REMARK   39  A    between atoms: _129  and  _130
REMARK   40  A    between atoms: _130  and  _131
REMARK   41  A    between atoms: _137  and  _138
REMARK   42  A    between atoms: _150  and  _151
REMARK   43  A    between atoms: _151  and  _152
REMARK   44  A    between atoms: _151  and  _154
REMARK   45  A    between atoms: _160  and  _161
REMARK   46  A    between atoms: _161  and  _162
REMARK   47  A    between atoms: _161  and  _164
REMARK   48  A    between atoms: _164  and  _165
REMARK   49  A    between atoms: _171  and  _172
REMARK   50  A    between atoms: _172  and  _173
REMARK   51  A    between atoms: _172  and  _175
REMARK   52  A    between atoms: _182  and  _183
REMARK   53  A    between atoms: _195  and  _196
REMARK   54  A    between atoms: _196  and  _197
REMARK   55  A    between atoms: _196  and  _199
REMARK   56  A    between atoms: _197  and  _198
REMARK   57  A    between atoms: _197  and  _214
REMARK   58  A    between atoms: _199  and  _200
REMARK   59  A    between atoms: _200  and  _201
REMARK   60  A    between atoms: _200  and  _202
REMARK   61  A    between atoms: _214  and  _215
REMARK   62  A    between atoms: _215  and  _216
REMARK   63  A    between atoms: _221  and  _222
REMARK   64  A    between atoms: _222  and  _223
REMARK   65  A    between atoms: _222  and  _225
REMARK   66  A    between atoms: _232  and  _233
REMARK   67  A    between atoms: _233  and  _234
REMARK                            x       y       z     vdW  Elec       q    Type
REMARK                         _______ _______ _______ _____ _____    ______ ____
ROOT
ATOM      1  CA  ASP A  10       6.820   0.773  -8.453  0.00  0.00    +0.169 C 
ENDROOT
BRANCH   1   4
ATOM      2  C   PRO A   9       7.734   1.465  -6.371  0.00  0.00    +0.234 C 
ATOM      3  O   PRO A   9       7.734   2.635  -6.766  0.00  0.00    -0.274 OA
ATOM      4  N   ASP A  10       7.246   0.469  -7.086  0.00  0.00    -0.302 N 
ATOM      5  H   ASP A  10       7.165  -0.519  -6.683  0.00  0.00    +0.150 HD
BRANCH   2  11
ATOM      6  C   ASP A   8       6.445  -0.448  -4.344  0.00  0.00    +0.237 C 
ATOM      7  N   PRO A   9       7.746  -0.169  -4.492  0.00  0.00    -0.288 N 
ATOM      8  CD  PRO A   9       8.789  -1.203  -4.383  0.00  0.00    +0.109 C 
ATOM      9  CG  PRO A   9       9.977  -0.526  -5.012  0.00  0.00    +0.021 C 
ATOM     10  CB  PRO A   9       9.758   0.952  -4.965  0.00  0.00    +0.033 C 
ATOM     11  CA  PRO A   9       8.234   1.126  -4.973  0.00  0.00    +0.162 C 
ATOM     12  O   ASP A   8       5.605   0.431  -4.547  0.00  0.00    -0.274 OA
BRANCH   6  13
ATOM     13  CA  ASP A   8       6.035  -1.784  -3.727  0.00  0.00    +0.170 C 
BRANCH  13  16
ATOM     14  C   ALA A   7       6.117  -0.960  -1.411  0.00  0.00    +0.234 C 
ATOM     15  O   ALA A   7       7.332  -1.141  -1.302  0.00  0.00    -0.274 OA
ATOM     16  N   ASP A   8       5.492  -1.600  -2.385  0.00  0.00    -0.302 N 
ATOM     17  H   ASP A   8       4.526  -2.009  -2.176  0.00  0.00    +0.150 HD
BRANCH  14  18
ATOM     18  CA  ALA A   7       5.273  -0.598  -0.192  0.00  0.00    +0.156 C 
ATOM     19  CB  ALA A   7       5.246   0.916   0.001  0.00  0.00    +0.038 C 
BRANCH  18  21
ATOM     20  C   LEU A   6       5.898  -2.596   1.105  0.00  0.00    +0.234 C 
ATOM     21  N   ALA A   7       5.781  -1.255   1.010  0.00  0.00    -0.303 N 
ATOM     22  H   ALA A   7       6.071  -0.651   1.845  0.00  0.00    +0.149 HD
ATOM     23  O   LEU A   6       5.066  -3.268   0.492  0.00  0.00    -0.274 OA
BRANCH  20  24
ATOM     24  CA  LEU A   6       6.562  -3.146   2.363  0.00  0.00    +0.159 C 
BRANCH  24  27
ATOM     25  C   GLY A   5       4.527  -2.910   3.719  0.00  0.00    +0.231 C 
ATOM     26  O   GLY A   5       4.910  -1.787   4.059  0.00  0.00    -0.274 OA
ATOM     27  N   LEU A   6       5.562  -3.648   3.301  0.00  0.00    -0.303 N 
ATOM     28  H   LEU A   6       5.661  -4.648   3.670  0.00  0.00    +0.149 HD
BRANCH  25  29
ATOM     29  CA  GLY A   5       3.443  -3.623   4.508  0.00  0.00    +0.200 C 
BRANCH  29  32
ATOM     30  C   VAL A   4       4.699  -3.625   6.605  0.00  0.00    +0.234 C 
ATOM     31  O   VAL A   4       5.273  -4.652   6.238  0.00  0.00    -0.274 OA
ATOM     32  N   GLY A   5       3.557  -3.426   5.941  0.00  0.00    -0.305 N 
ATOM     33  H   GLY A   5       2.693  -3.109   6.487  0.00  0.00    +0.149 HD
BRANCH  30  34
ATOM     34  CA  VAL A   4       4.703  -3.215   8.078  0.00  0.00    +0.161 C 
BRANCH  34  36
ATOM     35  C   PRO A   3       3.238  -5.086   8.680  0.00  0.00    +0.234 C 
ATOM     36  N   VAL A   4       4.305  -4.348   8.906  0.00  0.00    -0.302 N 
ATOM     37  H   VAL A   4       4.917  -4.594   9.748  0.00  0.00    +0.150 HD
ATOM     38  O   PRO A   3       2.227  -4.445   8.391  0.00  0.00    -0.274 OA
BRANCH  35  45
ATOM     39  C   GLY A   2       1.931  -5.293  11.375  0.00  0.00    +0.230 C 
ATOM     40  O   GLY A   2       2.932  -4.582  11.484  0.00  0.00    -0.274 OA
ATOM     41  N   PRO A   3       2.059  -6.277  10.523  0.00  0.00    -0.289 N 
ATOM     42  CD  PRO A   3       0.928  -7.059  10.234  0.00  0.00    +0.108 C 
ATOM     43  CG  PRO A   3       1.260  -7.738   8.938  0.00  0.00    +0.021 C 
ATOM     44  CB  PRO A   3       2.717  -7.551   8.664  0.00  0.00    +0.033 C 
ATOM     45  CA  PRO A   3       3.127  -6.355   9.523  0.00  0.00    +0.162 C 
BRANCH  39  46
ATOM     46  CA  GLY A   2       0.932  -5.402  12.508  0.00  0.00    +0.179 C 
BRANCH  46  47
ATOM     47  N   GLY A   2       1.345  -4.684  13.711  0.00  0.00    -0.279 NA
ATOM     48  H   GLY A   2       0.503  -4.391  14.303  0.00  0.00    +0.125 HD
BRANCH  47  49
ATOM     49  C   GLU A   1       2.457  -4.309  14.250  0.00  0.00    +0.232 C 
BRANCH  49  50
ATOM     50  O   GLU A   1       2.988  -5.418  14.336  0.00  0.00    -0.372 OA
ATOM     51  H   GLU A   1       2.412  -6.014  14.840  0.00  0.00    +0.212 HD
ENDBRANCH  49  50
BRANCH  49  52
ATOM     52  CA  GLU A   1       2.383  -3.391  15.469  0.00  0.00    +0.105 C 
BRANCH  52  53
ATOM     53  N   GLU A   1       1.748  -4.062  16.594  0.00  0.00    +0.224 N 
ATOM     54  H1  GLU A   1       1.710  -3.397  17.431  0.00  0.00    +0.200 HD
ATOM     55  H2  GLU A   1       2.313  -4.932  16.856  0.00  0.00    +0.200 HD
ATOM     56  H3  GLU A   1       0.754  -4.351  16.323  0.00  0.00    +0.200 HD
ENDBRANCH  52  53
BRANCH  52  57
ATOM     57  CB  GLU A   1       3.785  -2.908  15.844  0.00  0.00    +0.069 C 
BRANCH  57  58
ATOM     58  CG  GLU A   1       3.789  -1.723  16.797  0.00  0.00    +0.126 C 
BRANCH  58  59
ATOM     59  CD  GLU A   1       5.184  -1.204  17.109  0.00  0.00    +0.305 C 
ATOM     60  OE1 GLU A   1       5.375   0.032  17.156  0.00  0.00    -0.251 OA
BRANCH  59  61
ATOM     61  OE2 GLU A   1       6.094  -2.041  17.297  0.00  0.00    -0.481 OA
ATOM     62  HE2 GLU A   1       5.904  -2.957  17.252  0.00  0.00    +0.295 HD
ENDBRANCH  59  61
ENDBRANCH  58  59
ENDBRANCH  57  58
ENDBRANCH  52  57
ENDBRANCH  49  52
ENDBRANCH  47  49
ENDBRANCH  46  47
ENDBRANCH  39  46
ENDBRANCH  35  45
ENDBRANCH  34  36
BRANCH  34  63
ATOM     63  CB  VAL A   4       6.098  -2.682   8.477  0.00  0.00    +0.012 C 
ATOM     64  CG2 VAL A   4       6.125  -2.312   9.953  0.00  0.00    +0.009 C 
ATOM     65  CG1 VAL A   4       6.484  -1.480   7.613  0.00  0.00    +0.009 C 
ENDBRANCH  34  63
ENDBRANCH  30  34
ENDBRANCH  29  32
ENDBRANCH  25  29
ENDBRANCH  24  27
BRANCH  24  66
ATOM     66  CB  LEU A   6       7.551  -4.254   1.990  0.00  0.00    +0.034 C 
BRANCH  66  67
ATOM     67  CG  LEU A   6       8.984  -4.078   2.488  0.00  0.00    -0.015 C 
ATOM     68  CD2 LEU A   6       9.312  -5.125   3.547  0.00  0.00    +0.007 C 
ATOM     69  CD1 LEU A   6       9.969  -4.160   1.326  0.00  0.00    +0.007 C 
ENDBRANCH  66  67
ENDBRANCH  24  66
ENDBRANCH  20  24
ENDBRANCH  18  21
ENDBRANCH  14  18
ENDBRANCH  13  16
BRANCH  13  70
ATOM     70  CB  ASP A   8       5.012  -2.484  -4.625  0.00  0.00    +0.152 C 
BRANCH  70  71
ATOM     71  CG  ASP A   8       5.582  -2.871  -5.980  0.00  0.00    +0.307 C 
ATOM     72  OD1 ASP A   8       5.109  -3.875  -6.559  0.00  0.00    -0.251 OA
BRANCH  71  73
ATOM     73  OD2 ASP A   8       6.500  -2.180  -6.477  0.00  0.00    -0.481 OA
ATOM     74  HD2 ASP A   8       6.829  -1.435  -6.014  0.00  0.00    +0.295 HD
ENDBRANCH  71  73
ENDBRANCH  70  71
ENDBRANCH  13  70
ENDBRANCH   6  13
ENDBRANCH   2  11
ENDBRANCH   1   4
BRANCH   1  75
ATOM     75  C   ASP A  10       5.297   0.779  -8.562  0.00  0.00    +0.234 C 
ATOM     76  N   GLY A  11       4.684   0.563  -7.520  0.00  0.00    -0.305 N 
ATOM     77  H   GLY A  11       5.227   0.457  -6.604  0.00  0.00    +0.149 HD
ATOM     78  O   ASP A  10       4.746   1.003  -9.641  0.00  0.00    -0.274 OA
BRANCH  76  79
ATOM     79  CA  GLY A  11       3.232   0.448  -7.508  0.00  0.00    +0.200 C 
BRANCH  79  80
ATOM     80  C   GLY A  11       2.547   1.622  -6.836  0.00  0.00    +0.233 C 
ATOM     81  O   GLY A  11       3.209   2.510  -6.297  0.00  0.00    -0.274 OA
ATOM     82  N   PRO A  12       1.392   2.006  -7.391  0.00  0.00    -0.289 N 
ATOM     83  CA  PRO A  12       0.791   3.234  -6.867  0.00  0.00    +0.162 C 
ATOM     84  CB  PRO A  12      -0.628   3.207  -7.441  0.00  0.00    +0.033 C 
ATOM     85  CG  PRO A  12      -0.902   1.762  -7.711  0.00  0.00    +0.021 C 
ATOM     86  CD  PRO A  12       0.403   1.072  -7.984  0.00  0.00    +0.108 C 
BRANCH  83  87
ATOM     87  C   PRO A  12       0.761   3.273  -5.340  0.00  0.00    +0.234 C 
ATOM     88  O   PRO A  12       0.723   2.223  -4.695  0.00  0.00    -0.274 OA
ATOM     89  N   ALA A  13       1.345   4.391  -4.797  0.00  0.00    -0.303 N 
ATOM     90  H   ALA A  13       1.811   5.090  -5.460  0.00  0.00    +0.149 HD
BRANCH  89  91
ATOM     91  CA  ALA A  13       1.366   4.680  -3.363  0.00  0.00    +0.156 C 
ATOM     92  CB  ALA A  13       1.567   6.172  -3.123  0.00  0.00    +0.038 C 
BRANCH  91  93
ATOM     93  C   ALA A  13       0.082   4.203  -2.689  0.00  0.00    +0.234 C 
ATOM     94  N   SER A  14       0.086   2.980  -2.072  0.00  0.00    -0.301 N 
ATOM     95  H   SER A  14       0.939   2.342  -2.173  0.00  0.00    +0.150 HD
ATOM     96  O   ALA A  13      -1.009   4.344  -3.246  0.00  0.00    -0.274 OA
BRANCH  94  97
ATOM     97  CA  SER A  14      -1.054   2.533  -1.279  0.00  0.00    +0.184 C 
BRANCH  97  98
ATOM     98  C   SER A  14      -1.466   3.590  -0.260  0.00  0.00    +0.236 C 
ATOM     99  O   SER A  14      -0.614   4.270   0.317  0.00  0.00    -0.274 OA
ATOM    100  N   ALA A  15      -2.600   4.344  -0.522  0.00  0.00    -0.303 N 
ATOM    101  H   ALA A  15      -3.053   4.247  -1.487  0.00  0.00    +0.149 HD
BRANCH 100 102
ATOM    102  CA  ALA A  15      -3.217   5.262   0.431  0.00  0.00    +0.156 C 
ATOM    103  CB  ALA A  15      -4.492   5.859  -0.157  0.00  0.00    +0.038 C 
BRANCH 102 104
ATOM    104  C   ALA A  15      -3.523   4.559   1.750  0.00  0.00    +0.236 C 
ATOM    105  N   PRO A  16      -3.033   5.266   2.809  0.00  0.00    -0.288 N 
ATOM    106  CA  PRO A  16      -3.268   4.762   4.164  0.00  0.00    +0.162 C 
ATOM    107  CB  PRO A  16      -2.834   5.926   5.055  0.00  0.00    +0.033 C 
ATOM    108  CG  PRO A  16      -2.486   7.027   4.102  0.00  0.00    +0.021 C 
ATOM    109  CD  PRO A  16      -2.697   6.527   2.701  0.00  0.00    +0.109 C 
ATOM    110  O   ALA A  15      -3.809   3.357   1.770  0.00  0.00    -0.274 OA
BRANCH 106 111
ATOM    111  C   PRO A  16      -4.730   4.398   4.414  0.00  0.00    +0.234 C 
ATOM    112  N   LEU A  17      -5.109   3.059   4.461  0.00  0.00    -0.307 N 
ATOM    113  H   LEU A  17      -4.387   2.324   4.173  0.00  0.00    +0.149 HD
ATOM    114  O   PRO A  16      -5.633   5.090   3.932  0.00  0.00    -0.274 OA
BRANCH 112 115
ATOM    115  CA  LEU A  17      -6.430   2.594   4.879  0.00  0.00    +0.116 C 
BRANCH 115 116
ATOM    116  C   LEU A  17      -6.812   3.182   6.230  0.00  0.00    +0.203 C 
BRANCH 116 117
ATOM    117  O   LEU A  17      -6.031   3.113   7.184  0.00  0.00    -0.376 OA
ATOM    118  H   LEU A  17      -5.305   3.743   7.054  0.00  0.00    +0.212 HD
ENDBRANCH 116 117
BRANCH 116 119
ATOM    119  N   GLY A  18      -7.219   4.477   6.234  0.00  0.00    -0.282 NA
ATOM    120  H   GLY A  18      -6.833   5.062   5.425  0.00  0.00    +0.125 HD
BRANCH 119 121
ATOM    121  CA  GLY A  18      -8.086   5.211   7.141  0.00  0.00    +0.179 C 
BRANCH 121 122
ATOM    122  C   GLY A  18      -8.547   4.387   8.328  0.00  0.00    +0.228 C 
ATOM    123  N   ALA A  19      -7.832   4.555   9.406  0.00  0.00    -0.303 N 
ATOM    124  H   ALA A  19      -6.794   4.707   9.197  0.00  0.00    +0.149 HD
ATOM    125  O   GLY A  18      -8.906   3.217   8.180  0.00  0.00    -0.274 OA
BRANCH 123 126
ATOM    126  CA  ALA A  19      -8.133   4.582  10.836  0.00  0.00    +0.156 C 
ATOM    127  CB  ALA A  19      -8.156   6.023  11.344  0.00  0.00    +0.038 C 
BRANCH 126 128
ATOM    128  C   ALA A  19      -9.461   3.895  11.141  0.00  0.00    +0.236 C 
ATOM    129  N   PRO A  20      -9.375   3.020  12.258  0.00  0.00    -0.286 N 
ATOM    130  CD  PRO A  20      -8.930   3.764  13.258  0.00  0.00    +0.109 C 
ATOM    131  CG  PRO A  20      -9.312   3.033  14.508  0.00  0.00    +0.021 C 
ATOM    132  CB  PRO A  20     -10.227   1.907  14.148  0.00  0.00    +0.035 C 
ATOM    133  CA  PRO A  20     -10.273   1.922  12.617  0.00  0.00    +0.184 C 
ATOM    134  O   ALA A  19     -10.391   3.953  10.328  0.00  0.00    -0.274 OA
BRANCH 133 135
ATOM    135  C   PRO A  20     -11.703   2.143  12.117  0.00  0.00    +0.325 C 
ATOM    136  O   PRO A  20     -12.418   1.179  11.847  0.00  0.00    -0.249 OA
BRANCH 135 137
ATOM    137  OXT PRO A  20     -12.140   3.285  11.984  0.00  0.00    -0.479 OA
ATOM    138  HXT PRO A  20     -11.598   4.021  12.189  0.00  0.00    +0.295 HD
ENDBRANCH 135 137
ENDBRANCH 133 135
ENDBRANCH 126 128
ENDBRANCH 123 126
ENDBRANCH 121 122
ENDBRANCH 119 121
ENDBRANCH 116 119
ENDBRANCH 115 116
BRANCH 115 139
ATOM    139  CB  LEU A  17      -6.461   1.063   4.945  0.00  0.00    +0.029 C 
BRANCH 139 140
ATOM    140  CG  LEU A  17      -7.727   0.388   4.414  0.00  0.00    -0.015 C 
ATOM    141  CD2 LEU A  17      -7.988  -0.917   5.156  0.00  0.00    +0.007 C 
ATOM    142  CD1 LEU A  17      -7.602   0.140   2.914  0.00  0.00    +0.007 C 
ENDBRANCH 139 140
ENDBRANCH 115 139
ENDBRANCH 112 115
ENDBRANCH 106 111
ENDBRANCH 102 104
ENDBRANCH 100 102
ENDBRANCH  97  98
BRANCH  97 143
ATOM    143  CB  SER A  14      -0.728   1.222  -0.565  0.00  0.00    +0.187 C 
BRANCH 143 144
ATOM    144  OG  SER A  14      -0.268   0.248  -1.486  0.00  0.00    -0.393 OA
ATOM    145  H   SER A  14      -1.012   0.066  -2.204  0.00  0.00    +0.209 HD
ENDBRANCH 143 144
ENDBRANCH  97 143
ENDBRANCH  94  97
ENDBRANCH  91  93
ENDBRANCH  89  91
ENDBRANCH  83  87
ENDBRANCH  79  80
ENDBRANCH  76  79
ENDBRANCH   1  75
BRANCH   1 146
ATOM    146  CB  ASP A  10       7.414  -0.235  -9.438  0.00  0.00    +0.152 C 
BRANCH 146 147
ATOM    147  CG  ASP A  10       8.930  -0.156  -9.523  0.00  0.00    +0.307 C 
ATOM    148  OD1 ASP A  10       9.461   0.928  -9.844  0.00  0.00    -0.251 OA
BRANCH 147 149
ATOM    149  OD2 ASP A  10       9.594  -1.187  -9.281  0.00  0.00    -0.481 OA
ATOM    150  HD2 ASP A  10       9.157  -1.981  -9.043  0.00  0.00    +0.295 HD
ENDBRANCH 147 149
ENDBRANCH 146 147
ENDBRANCH   1 146
TORSDOF 57
