REMARK  8 active torsions:
REMARK  status: ('A' for Active; 'I' for Inactive)
REMARK    1  A    between atoms: C02_2  and  C03_3 
REMARK    2  A    between atoms: C02_2  and  C12_12 
REMARK    3  A    between atoms: C03_3  and  C04_4 
REMARK    4  A    between atoms: C12_12  and  C13_13 
REMARK       I    between atoms: C13_13  and  N15_15 
REMARK    5  A    between atoms: N15_15  and  C16_16 
REMARK    6  A    between atoms: C16_16  and  C32_32 
REMARK    7  A    between atoms: C16_16  and  C17_17 
REMARK    8  A    between atoms: C20_20  and  N22_22 
ROOT
HETATM    1  C01 BGI A1001      21.704  10.672  13.081  1.00 42.43     0.006 C 
HETATM    2  C02 BGI A1001      22.623  11.564  13.927  1.00 42.43     0.083 C 
ENDROOT
BRANCH   2   3
HETATM    3  C03 BGI A1001      23.784  12.049  13.063  1.00 42.43     0.194 C 
HETATM    4  O11 BGI A1001      24.820  12.530  13.883  1.00 42.43    -0.217 OA
BRANCH   3   5
HETATM    5  C04 BGI A1001      23.266  13.176  12.190  1.00 42.43     0.089 A 
HETATM    6  N05 BGI A1001      22.356  13.990  12.672  1.00 42.43    -0.244 NA
HETATM    7  C06 BGI A1001      21.874  14.984  11.944  1.00 42.43     0.126 A 
HETATM    8  C07 BGI A1001      22.318  15.197  10.645  1.00 42.43     0.150 A 
HETATM    9  C08 BGI A1001      23.273  14.366  10.096  1.00 42.43     0.030 A 
HETATM   10  O10 BGI A1001      21.787  16.269   9.883  1.00 42.43    -0.189 OA
HETATM   11  C09 BGI A1001      23.751  13.331  10.903  1.00 42.43     0.019 A 
ENDBRANCH   3   5
ENDBRANCH   2   3
BRANCH   2  12
HETATM   12  C12 BGI A1001      23.137  10.771  15.135  1.00 42.43     0.384 C 
HETATM   13  N35 BGI A1001      23.893   9.639  14.716  1.00 42.43     0.626 N 
BRANCH  12  14
HETATM   14  C13 BGI A1001      21.936  10.327  16.012  1.00 42.43     0.289 C 
HETATM   15  O14 BGI A1001      21.584   9.220  16.003  1.00 42.43    -0.268 OA
HETATM   16  N15 BGI A1001      21.241  11.325  16.860  1.00 42.43    -0.225 NA
BRANCH  16  17
HETATM   17  C16 BGI A1001      20.093  10.915  17.695  1.00 42.43     0.222 C 
BRANCH  17  18
HETATM   18  C32 BGI A1001      18.880  11.692  17.250  1.00 42.43     0.211 C 
HETATM   19  O33 BGI A1001      17.736  11.200  17.371  1.00 42.43    -0.646 OA
HETATM   20  O34 BGI A1001      19.021  12.827  16.760  1.00 42.43    -0.646 OA
ENDBRANCH  17  18
BRANCH  17  21
HETATM   21  C17 BGI A1001      20.361  11.219  19.158  1.00 42.43     0.183 C 
HETATM   22  C18 BGI A1001      20.628  10.096  19.825  1.00 42.43     0.216 C 
HETATM   23  C19 BGI A1001      20.169  10.414  21.220  1.00 42.43     0.234 C 
HETATM   24  O31 BGI A1001      22.098   9.823  19.842  1.00 42.43    -0.218 OA
HETATM   25  O30 BGI A1001      21.140  11.121  21.844  1.00 42.43    -0.216 OA
HETATM   26  C20 BGI A1001      18.923  11.334  21.017  1.00 42.43     0.242 C 
HETATM   27  O21 BGI A1001      19.034  11.832  19.821  1.00 42.43    -0.331 OA
BRANCH  26  28
HETATM   28  N22 BGI A1001      17.697  10.545  21.143  1.00 42.43    -0.254 N 
HETATM   29  C23 BGI A1001      17.414   9.627  20.237  1.00 42.43     0.086 A 
HETATM   30  C24 BGI A1001      16.245   8.872  20.349  1.00 42.43     0.066 A 
HETATM   31  C25 BGI A1001      15.413   9.124  21.432  1.00 42.43     0.218 A 
HETATM   32  O26 BGI A1001      14.199   8.382  21.602  1.00 42.43    -0.169 OA
HETATM   33  N27 BGI A1001      15.752  10.056  22.306  1.00 42.43    -0.165 NA
HETATM   34  C28 BGI A1001      16.876  10.753  22.161  1.00 42.43     0.354 A 
HETATM   35  O29 BGI A1001      17.149  11.588  22.972  1.00 42.43    -0.244 OA
ENDBRANCH  26  28
ENDBRANCH  17  21
ENDBRANCH  16  17
ENDBRANCH  12  14
ENDBRANCH   2  12
TORSDOF 8
